52
Energy= -203.80325 Cell Parameters:    4.90087   2.82952   8.75957   0.00000   5.65903   8.75957  -4.90087  -2.82952   8.75957
O        0.23614        1.91850        5.34197
N        1.54100        5.80035       14.67816
N        0.20485        1.22909        7.54920
N        0.23326        0.48406        9.70483
C        0.61120        1.16645        6.23962
C        2.02445        4.91473       15.58105
C        1.61702        4.98276       16.87821
C        0.68033        6.01956       17.18930
H        1.82736        5.77130       13.70948
H        2.72823        4.17851       15.21752
H        1.98644        4.28955       17.61815
H        0.54172        5.52750       19.19379
H       -0.42496        1.21834        9.90611
O        1.67380        4.79701       20.29889
N       -2.30847        1.66975       13.60355
N       -2.13995       -0.03032       11.95771
N       -1.04973        3.68767       21.21369
C       -2.59753        1.22122       12.28684
C       -1.62392        0.93724       14.51356
C       -1.17306       -0.30327       14.18021
C       -1.47042       -0.74400       12.85113
H       -2.65380        2.59307       13.82585
H       -1.46532        1.38555       15.48481
H       -0.62500        4.75089       23.64567
H        4.36446        5.91143       13.06703
H       -1.26734        3.39360       20.27608
O        2.00962        2.98851       12.34198
N        1.09849        3.28887       10.27482
N        0.92279        4.98628       11.92265
N       -0.16680        1.26838        2.66563
C        1.38238        3.73555       11.59329
C        0.41686        4.02236        9.36342
C       -0.03602        5.26207        9.69700
C        0.25613        5.70093       11.02786
H        1.44523        2.36612       10.05237
H        0.26214        3.57545        8.39089
H        4.31903        3.03817        8.99002
H       -0.67823        1.87477       19.57089
H        0.04715        1.56113        3.60450
O       -1.44978        3.03851       18.53748
N       -2.75359       -0.84219        9.20245
N       -1.41871        3.72883       16.33053
N       -1.44730        4.47479       14.17521
C       -1.82461        3.79120       17.64026
C        1.66415        2.87366       17.05966
C        2.07111        2.80589       15.76233
C       -1.89388       -1.06094        6.69094
H       -3.03962       -0.81335       10.17124
H        0.96100        3.61021       17.42373
H        1.70194        3.49967       15.02280
H       -1.75557       -0.56813        4.68661
H       -0.78965        3.74014       13.97341
