32
Energy= -40.97407 Cell Parameters:   3.97100   0.00000   0.00000   0.00000  16.31344   0.00000   0.00000   0.00000   4.00329
Li      2.8935676      0.7247235      3.0220935
Li      0.8435515      8.8483124      1.0688412
B      0.9063934     15.4255648      2.9257216
H      0.9361520     16.0800991      1.9508805
H      1.8301189     14.7767696      2.9791868
H      0.8664217     16.1237679      3.8487928
H      0.0031773     14.7879190      2.9119236
B      1.0055774     10.4218607      3.0706956
H      1.0849558     11.0796824      2.1008568
H      0.0580625      9.8068094      3.0392311
H      1.9245938      9.7194757      3.1273496
H      0.9941016     11.0791388      3.9597602
B      2.8288786      7.2564893      1.2351860
H      1.8655427      6.5981126      1.3698751
H      2.8051052      7.7675595      0.2275627
H      2.8631456      8.0526924      2.0754430
H      3.7255063      6.6133523      1.3060021
B      2.7845886      2.3144603      1.0164485
H      2.7267497      2.9837065      0.0529231
H      1.9411613      1.5623546      1.0109788
H      3.8012264      1.7600443      1.0311830
H      2.7064185      2.9558370      1.9137259
N      0.9039538      4.7714996      3.1376479
H      1.8226125      5.0222764      3.1801267
H      0.3667743      5.5509181      3.0254338
H      0.6575267      4.3292575      3.9453578
H      0.7689016      4.1835461      2.3996730
N      2.8545947     12.9051876      1.0662016
H      1.9693803     13.0426216      0.7404177
H      3.3367684     13.7267647      1.0320565
H      3.2950482     12.2554655      0.5253110
H      2.8171813     12.5958986      1.9670208
