50
Energy= -12.99533 Cell Parameters:   2.59542   7.65958   1.80567   2.43659   3.70883   8.66925   9.95976   4.30702   5.52037
Mg      5.7764738      6.5083063      6.7430654
B      4.8689963      4.7866150      5.0485670
B      5.6919727      9.0207295      6.1602719
B      6.1570906      5.7911946      9.1925432
H      3.6786444      4.4994864      5.0252886
H      4.6465410      9.6509553      6.2593197
H      5.2409418      5.8276534     10.0044941
H      5.4917419      4.1891532      4.1769270
H      7.1874475      5.3581379      9.6978711
H      4.9968228      5.9842854      4.7874168
H      6.0117920      8.5988910      7.2732506
H      5.8662000      4.9964863      8.2965657
H      5.3346984      4.5039962      6.1483604
H      5.5440800      8.1113724      5.3494104
H      6.3603496      6.9204240      8.7568550
H      3.2778783      5.8658874      7.2381702
H      3.3150310      7.4251143      6.7034173
H      3.7134121      7.0796389      8.2656181
H      8.0994039      6.7504819      5.2710570
H      8.5323227      6.6171277      6.8651920
H      8.1258058      5.2628163      6.0008693
N      3.8218275      6.7436849      7.2935782
N      7.8771204      6.2553464      6.1514325
H      6.6174853      9.7407316      5.8003359
Mg      9.8803946      9.0329916      9.1421836
B      7.4772938      9.5563796      9.9233574
B     10.3008296      6.9804046      7.6358037
B     11.6949872     10.8584832      9.3262861
H      6.7200749     10.2133920      9.2198827
H     10.0469738      7.0208646      6.4383721
H     11.8395448     11.6885758      8.4374826
H      6.9271586      9.1938500     10.9579843
H     12.4740175     11.0536095     10.2534146
H      7.7801755      8.5212000      9.3270193
H     11.1689260      7.8177414      7.8892394
H     10.5671036     10.9803557      9.8079292
H      8.4636502     10.2317122     10.2014300
H      9.2727374      7.1760606      8.2769310
H     11.8799726      9.7349612      8.8682730
H      8.6921531     10.7685930      7.5684683
H      8.8686751      9.3544394      6.7392886
H     10.1495925     10.3796460      6.9027941
H     10.0834254      7.0523375     11.0545774
H     11.4840722      7.9367769     11.1038134
H     10.1157932      8.5098706     11.8426268
N      9.3430308      9.9802990      7.4121668
N     10.4578963      8.0149260     11.0014223
H     10.7808386      5.8980983      7.9563265
Li      4.6674176      7.8447297      3.7458551
Li      3.3629777      3.9518302      2.5921463
