76
Energy= -44.00000138 Cell Parameters: 7.790614169736405 0.0 0.0 0.0 15.302168193041247 0.0 0.0 0.0 11.149866006113154
Sc	  4.51885036  12.42385566   7.25692996
B	  3.50309192  10.4377612    7.97438135
H	  2.82862867  11.32330488   7.51208774
H	  4.69856196  10.53842973   7.95094623
H	 3.30872499  9.52029668  7.21049058
H	  3.10349546  10.03798578   9.03261375
B	  3.37188822  12.85432238   5.35147599
H	  3.51517107  11.65251505   5.57777971
H	  4.50345548  13.33834631   5.33136515
H	  2.81254175  13.30478425   6.35943434
H	  2.76433322  13.06710487   4.34055367
B	  6.6173635   11.46345249   6.08969698
H	  7.56125505  10.81245224   6.46641749
H	  6.59506641  11.62917086   4.87517784
H	  6.62097297  12.57246004   6.61656025
H	  5.60275009  10.85669093   6.43131997
N	  5.58759945  12.0314653    9.2745201 
He	  5.81275075  11.41584501  10.01639889
He	  6.41968143  12.3262336    8.82625792
He	  5.10889501  12.8200897    9.6337022 
N	  5.66108532  14.57472707   7.32435567
He	  5.02451185  15.2719308    7.62230983
He	  6.35575986  14.44445389   8.01752274
He	  6.08870823  14.85841982   6.47767276
N	  2.87383634  13.20874477   8.78971827
He	  3.56503684  13.88897352   8.59068046
He	  2.68381049  13.20579132   9.76132884
He	  2.04576629  13.42443003   8.29196181
Sc	 5.09758691  5.43992534  7.22026203
B	 7.08613477  6.64686045  6.9373169 
H	 6.06024621  7.23018348  7.18245065
H	 7.09774286  5.44718772  6.95928459
H	 7.79044086  6.92668886  7.88002458
H	 7.66846043  7.08747975  5.98542143
B	 4.15123381  6.53230947  8.96459322
H	 5.38145703  6.5075238   9.00954549
H	 3.78526754  5.35894115  8.89823385
H	 3.88175426  7.04898549  7.8727182 
H	 3.66438924  7.11243107  9.89346604
B	 5.9745668   3.44042121  8.60642725
H	 6.77975141  2.56580065  8.39817847
H	 5.54474012  3.4418744   9.75458377
H	 5.01396066  3.33090311  7.84963315
H	 6.54152376  4.51055672  8.38807884
N	 6.02411637  4.42210264  5.35681231
He	 6.80633438  4.26074867  4.77186318
He	 5.71915393  3.56358842  5.74429005
He	 5.2915302   4.82314794  4.82523134
N	 3.13359582  4.09405885  6.70366051
He	 2.46119671  4.66088708  6.24903903
He	 3.47887538  3.41799598  6.06825085
He	 2.7131269   3.6376463   7.47509318
N	 4.5147428   7.00655454  5.52393432
He	 3.87680856  6.25168613  5.58137045
He	 4.71285168  7.19965292  4.57334947
He	 4.11669183  7.80780851  5.9476431 
Li	 5.40392755  9.26118096  4.91135157
Li	  1.51509828   7.57311086  10.48278076
N	  2.53005828   9.77108033  11.1019576 
He	  3.00266497  10.63508116  11.00081007
He	  1.71912752   9.76999832  10.53403525
He	  3.12866031   9.03315519  10.82424602
N	  3.26009165  15.28161426   3.95548691
He	  4.03837981  14.76508271   3.62754176
He	  2.47052972  15.08188308   3.39259698
He	  3.06890151  15.03013228   4.89366854
B	  0.83198867  11.79702577  10.08898988
H	  1.41084144  11.91948165  11.13910307
H	  0.01646982  10.9252348    9.96757532
H	  1.70699055  11.43527132   9.33629194
H	  0.452293    12.83863842   9.63048382
B	 4.39429866  4.38959854  3.05633051
H	 3.78452104  3.76722528  3.88917291
H	 4.30810703  5.58630957  3.03942802
H	 3.84228849  4.0789025   2.02589297
H	 5.52559371  4.01556517  2.91624457
