22
Energy= -22.95543 Cell Parameters: 8.17540	0.0	0.0 0.0	8.17540	0.0 0.0	0.0	10.07180
H          6.86603        5.12344        3.74590
H          1.30937        3.05196        3.74590
H          5.12344        1.30937        6.32590
H          3.05196        6.86603        6.32590
H          6.86603        3.05196        3.74590
H          1.30937        5.12344        3.74590
H          5.12344        6.86603        6.32590
H          3.05196        1.30937        6.32590
Mg         4.08770        4.08770        5.03590
Mg         4.08770        0.00000        7.55385
B          6.28222        4.08770        4.01704
B          1.89318        4.08770        4.01704
B          4.08770        1.89318        6.05476
B          4.08770        6.28222        6.05476
H          5.24607        4.08770        3.36428
H          2.92933        4.08770        3.36428
H          4.08770        2.92933        6.70752
H          4.08770        5.24607        6.70752
H          6.15812        4.08770        5.22978
H          2.01728        4.08770        5.22978
H          4.08770        2.01728        4.84202
H          4.08770        6.15812        4.84202