60
Energy= -28.00003360	Cell Parameters: 8.44585546605421 -4.876216926863071 0.0 0.0 9.752433853726142 0.0 0.0 0.0 8.96227342401017
Sc	 5.86312243  1.54046645  5.51224157
B	 3.35771061  1.13236938  5.54825258
B	 7.44631888  0.39580357  4.1825058 
B	 6.88937976  3.14596207  6.90506495
H	 2.54897654  1.71512892  4.87648423
H	 8.19115144 -0.30626839  3.55152186
H	 7.19695819  3.33475153  5.72888479
H	 2.9018767   0.30444966  6.3032138 
H	 4.16190736  0.55023796  4.79197003
H	 7.49325546  1.58191711  3.871049  
H	 5.65582416  3.14830383  6.97941724
H	 3.9752106   1.98484317  6.22075941
H	 6.27511059  0.02052581  4.01768441
H	 7.27673652  2.02363807  7.2162762 
H	 4.33778046  2.74661753  3.40194208
H	 5.85793133  3.34257368  3.22567054
H	 4.86761559  3.93119074  4.3993474 
H	 5.06540338 -0.89055445  6.75143503
H	 6.54621821 -0.56057574  7.39887194
H	 5.21437793  0.22970002  7.93659105
H	 7.71783728  0.31537889  5.37574236
H	 7.36279553  3.993223    7.6165904 
N	 5.15870468  3.07609019  3.91547873
N	 5.66608831 -0.14516224  7.09729785
Sc	 2.25696321  6.02232169  6.42139924
B	 1.96927367  3.93668047  5.00285639
B	 1.00521348  8.0186806   6.24074736
B	 3.91139957  6.1769437   8.09761809
H	 1.27300773  2.99728248  5.28156298
H	 0.39446945  9.02834537  6.00968443
H	 2.802436    6.44250622  8.55948611
H	 2.58064648  3.83635673  3.96393364
H	 1.25346457  4.95580206  4.92173173
H	 0.82236811  7.57067884  7.36854863
H	 3.84624598  5.05956045  7.57378333
H	 2.78963329  4.08816113  5.93255899
H	 0.67253375  7.13352138  5.43728875
H	 4.14933963  6.9891026   7.20863478
H	 0.12096133  4.25429594  7.16059704
H	 0.17803738  5.37946092  8.35551969
H	 1.28613999  4.16520314  8.3065366 
H	 3.14666403  6.27276293  3.73299258
H	 3.98669465  7.42802984  4.5579653 
H	 4.44805936  5.85686719  4.63585425
H	 2.2071784   8.22767545  6.11582596
H	 4.75358023  6.19847626  8.9569842 
N	 0.75428281  4.82279879  7.7279568 
N	 3.6314325   6.47423893  4.60503614
B	 4.32389678  2.23904099  1.15814176
H	 4.36426423  1.91197312  1.76016655
H	 4.49139117  3.4404694   1.34412329
H	 3.21852303  1.94514092  1.6392862 
H	 5.19340796  1.64272928  1.78453343
B	 5.53920694  5.66568742  2.43508912
H	 6.09239996  5.51308756  1.37843776
H	 5.1076462   6.80046365  2.61428717
H	 4.57444879  4.8899391   2.51985126
H	 6.3204291   5.41836884  3.34751957
Li	 7.13503108  3.65547662  0.98992686
Li	 1.70923697  1.72019528  2.7766334 
